powerflow/Codes/PF_Formulation/resultados_csv/18/9bus_transformer_fields/barras.csv
caso,script,bus_id,vm_pu,va_rad,pd_pu,qd_pu,pg_pu,qg_pu,bus_type
9bus_transformer_fields.pwf,18,1,1.0106314820626154,0.0,0.0,0.0,1.42732444815946,0.3571152514104526,3
9bus_transformer_fields.pwf,18,2,1.0039494916635028,-0.025649828165949125,0.0,0.0,0.9,-0.052435976574385576,2
9bus_transformer_fields.pwf,18,3,1.0177257827365274,-0.01738182081662581,0.0,0.0,0.85,-0.19627189329061173,2
9bus_transformer_fields.pwf,18,4,1.0432612276823323,-0.07442801390729344,0.0,0.0,0.0,0.0,1
9bus_transformer_fields.pwf,18,5,1.011666941912785,-0.14076612310784167,1.25,0.5,0.0,0.0,1
9bus_transformer_fields.pwf,18,6,1.0251011184896288,-0.1214352640434393,0.9,0.3,0.0,0.0,1
9bus_transformer_fields.pwf,18,7,1.0269668859176875,-0.07925438308668073,0.0,0.0,0.0,0.0,1
9bus_transformer_fields.pwf,18,8,1.0157680903830644,-0.11270193370680628,1.0,0.35,0.0,0.0,1
9bus_transformer_fields.pwf,18,9,1.0301902329928383,-0.064907884004463,0.0,0.0,0.0,0.0,1
